*SPEF "ieee 1481-1999"
*DESIGN "hac_deskew_dut"
*DATE "14:29:30 Saturday January 10, 2026"
*VENDOR "The OpenROAD Project"
*PROGRAM "OpenROAD"
*VERSION "b16bda7e82721d10566ff7e2b68f1ff0be9f9e38"
*DESIGN_FLOW "NAME_SCOPE LOCAL" "PIN_CAP NONE"
*DIVIDER /
*DELIMITER :
*BUS_DELIMITER []
*T_UNIT 1 NS
*C_UNIT 1 PF
*R_UNIT 1 OHM
*L_UNIT 1 HENRY

*NAME_MAP
*3 clk
*4 delta_t[0]
*5 delta_t[10]
*6 delta_t[11]
*7 delta_t[12]
*8 delta_t[13]
*9 delta_t[14]
*10 delta_t[15]
*11 delta_t[1]
*12 delta_t[2]
*13 delta_t[3]
*14 delta_t[4]
*15 delta_t[5]
*16 delta_t[6]
*17 delta_t[7]
*18 delta_t[8]
*19 delta_t[9]
*20 hac_val[0]
*21 hac_val[10]
*22 hac_val[11]
*23 hac_val[12]
*24 hac_val[13]
*25 hac_val[14]
*26 hac_val[15]
*27 hac_val[16]
*28 hac_val[17]
*29 hac_val[18]
*30 hac_val[19]
*31 hac_val[1]
*32 hac_val[20]
*33 hac_val[21]
*34 hac_val[22]
*35 hac_val[23]
*36 hac_val[24]
*37 hac_val[25]
*38 hac_val[26]
*39 hac_val[27]
*40 hac_val[28]
*41 hac_val[29]
*42 hac_val[2]
*43 hac_val[30]
*44 hac_val[31]
*45 hac_val[3]
*46 hac_val[4]
*47 hac_val[5]
*48 hac_val[6]
*49 hac_val[7]
*50 hac_val[8]
*51 hac_val[9]
*52 instr_data[0]
*53 instr_data[10]
*54 instr_data[11]
*55 instr_data[12]
*56 instr_data[13]
*57 instr_data[14]
*58 instr_data[15]
*59 instr_data[16]
*60 instr_data[17]
*61 instr_data[18]
*62 instr_data[19]
*63 instr_data[1]
*64 instr_data[20]
*65 instr_data[21]
*66 instr_data[22]
*67 instr_data[23]
*68 instr_data[24]
*69 instr_data[25]
*70 instr_data[26]
*71 instr_data[27]
*72 instr_data[28]
*73 instr_data[29]
*74 instr_data[2]
*75 instr_data[30]
*76 instr_data[31]
*77 instr_data[32]
*78 instr_data[33]
*79 instr_data[34]
*80 instr_data[35]
*81 instr_data[36]
*82 instr_data[37]
*83 instr_data[38]
*84 instr_data[39]
*85 instr_data[3]
*86 instr_data[4]
*87 instr_data[5]
*88 instr_data[6]
*89 instr_data[7]
*90 instr_data[8]
*91 instr_data[9]
*92 instr_ready
*93 instr_valid
*94 link_rx[0]
*95 link_rx[10]
*96 link_rx[11]
*97 link_rx[12]
*98 link_rx[13]
*99 link_rx[14]
*100 link_rx[15]
*101 link_rx[16]
*102 link_rx[17]
*103 link_rx[18]
*104 link_rx[19]
*105 link_rx[1]
*106 link_rx[20]
*107 link_rx[21]
*108 link_rx[22]
*109 link_rx[23]
*110 link_rx[24]
*111 link_rx[25]
*112 link_rx[26]
*113 link_rx[27]
*114 link_rx[28]
*115 link_rx[29]
*116 link_rx[2]
*117 link_rx[30]
*118 link_rx[31]
*119 link_rx[32]
*120 link_rx[33]
*121 link_rx[34]
*122 link_rx[35]
*123 link_rx[36]
*124 link_rx[37]
*125 link_rx[38]
*126 link_rx[39]
*127 link_rx[3]
*128 link_rx[40]
*129 link_rx[41]
*130 link_rx[42]
*131 link_rx[43]
*132 link_rx[44]
*133 link_rx[45]
*134 link_rx[46]
*135 link_rx[47]
*136 link_rx[4]
*137 link_rx[5]
*138 link_rx[6]
*139 link_rx[7]
*140 link_rx[8]
*141 link_rx[9]
*142 link_rx_r
*143 link_rx_v
*144 link_tx[0]
*145 link_tx[10]
*146 link_tx[11]
*147 link_tx[12]
*148 link_tx[13]
*149 link_tx[14]
*150 link_tx[15]
*151 link_tx[16]
*152 link_tx[17]
*153 link_tx[18]
*154 link_tx[19]
*155 link_tx[1]
*156 link_tx[20]
*157 link_tx[21]
*158 link_tx[22]
*159 link_tx[23]
*160 link_tx[24]
*161 link_tx[25]
*162 link_tx[26]
*163 link_tx[27]
*164 link_tx[28]
*165 link_tx[29]
*166 link_tx[2]
*167 link_tx[30]
*168 link_tx[31]
*169 link_tx[32]
*170 link_tx[33]
*171 link_tx[34]
*172 link_tx[35]
*173 link_tx[36]
*174 link_tx[37]
*175 link_tx[38]
*176 link_tx[39]
*177 link_tx[3]
*178 link_tx[40]
*179 link_tx[41]
*180 link_tx[42]
*181 link_tx[43]
*182 link_tx[44]
*183 link_tx[45]
*184 link_tx[46]
*185 link_tx[47]
*186 link_tx[4]
*187 link_tx[5]
*188 link_tx[6]
*189 link_tx[7]
*190 link_tx[8]
*191 link_tx[9]
*192 link_tx_r
*193 link_tx_v
*194 phase_status[0]
*195 phase_status[1]
*196 phase_status[2]
*197 phase_status[3]
*198 phase_status[4]
*199 phase_status[5]
*200 phase_status[6]
*201 phase_status[7]
*202 rst_n
*203 sac_val[0]
*204 sac_val[10]
*205 sac_val[11]
*206 sac_val[12]
*207 sac_val[13]
*208 sac_val[14]
*209 sac_val[15]
*210 sac_val[16]
*211 sac_val[17]
*212 sac_val[18]
*213 sac_val[19]
*214 sac_val[1]
*215 sac_val[20]
*216 sac_val[21]
*217 sac_val[22]
*218 sac_val[23]
*219 sac_val[24]
*220 sac_val[25]
*221 sac_val[26]
*222 sac_val[27]
*223 sac_val[28]
*224 sac_val[29]
*225 sac_val[2]
*226 sac_val[30]
*227 sac_val[31]
*228 sac_val[3]
*229 sac_val[4]
*230 sac_val[5]
*231 sac_val[6]
*232 sac_val[7]
*233 sac_val[8]
*234 sac_val[9]
*235 _0000_
*236 _0001_
*237 _0002_
*238 _0003_
*239 _0004_
*240 _0005_
*241 _0006_
*242 _0007_
*243 _0008_
*244 _0009_
*245 _0010_
*246 _0011_
*247 _0012_
*248 _0013_
*249 _0014_
*250 _0015_
*251 _0016_
*252 _0017_
*253 _0018_
*254 _0019_
*255 _0020_
*256 _0021_
*257 _0022_
*258 _0023_
*259 _0024_
*260 _0025_
*261 _0026_
*262 _0027_
*263 _0028_
*264 _0029_
*265 _0030_
*266 _0031_
*267 _0032_
*268 _0033_
*269 _0034_
*270 _0035_
*271 _0036_
*272 _0037_
*273 _0038_
*274 _0039_
*275 _0040_
*276 _0041_
*277 _0042_
*278 _0043_
*279 _0044_
*280 _0045_
*281 _0046_
*282 _0047_
*283 _0048_
*284 _0049_
*285 _0050_
*286 _0051_
*287 _0052_
*288 _0053_
*289 _0054_
*290 _0055_
*291 _0056_
*292 _0057_
*293 _0058_
*294 _0059_
*295 _0060_
*296 _0061_
*297 _0062_
*298 _0063_
*299 _0064_
*300 _0065_
*301 _0066_
*302 _0067_
*303 _0068_
*304 _0069_
*305 _0070_
*306 _0071_
*307 _0072_
*308 _0073_
*309 _0074_
*310 _0075_
*311 _0076_
*312 _0077_
*313 _0078_
*314 _0079_
*315 _0080_
*316 _0081_
*317 _0082_
*318 _0083_
*319 _0084_
*320 _0085_
*321 _0086_
*322 _0087_
*323 _0088_
*324 _0089_
*325 _0090_
*326 _0091_
*327 _0092_
*328 _0093_
*329 _0094_
*330 _0095_
*331 _0096_
*332 _0097_
*333 _0098_
*334 _0099_
*335 _0100_
*336 _0101_
*337 _0102_
*338 _0103_
*339 _0104_
*340 _0105_
*341 _0106_
*342 _0107_
*343 _0108_
*344 _0109_
*345 _0110_
*346 _0111_
*347 _0112_
*348 _0113_
*349 _0114_
*350 _0115_
*351 _0116_
*352 _0117_
*353 _0118_
*354 _0119_
*355 _0120_
*356 _0121_
*357 _0122_
*358 _0123_
*359 _0124_
*360 _0125_
*361 _0126_
*362 _0127_
*363 _0128_
*364 _0129_
*365 _0130_
*366 _0131_
*367 _0132_
*368 _0133_
*369 _0134_
*370 _0135_
*371 _0136_
*372 _0137_
*373 _0138_
*374 _0139_
*375 _0140_
*376 _0141_
*377 _0142_
*378 _0143_
*379 _0144_
*380 _0145_
*381 _0146_
*382 _0147_
*383 _0148_
*384 _0149_
*385 _0150_
*386 _0151_
*387 _0152_
*388 _0153_
*389 _0154_
*390 _0155_
*391 _0156_
*392 _0157_
*393 _0158_
*394 _0159_
*395 _0160_
*396 _0161_
*397 _0162_
*398 _0163_
*399 _0164_
*400 _0165_
*401 _0166_
*402 _0167_
*403 _0168_
*404 _0169_
*405 _0170_
*406 _0171_
*407 _0172_
*408 _0173_
*409 _0174_
*410 _0175_
*411 _0176_
*412 _0177_
*413 _0178_
*414 _0179_
*415 _0180_
*416 _0181_
*417 _0182_
*418 _0183_
*419 _0184_
*420 _0185_
*421 _0186_
*422 _0187_
*423 _0188_
*424 _0189_
*425 _0190_
*426 _0191_
*427 _0192_
*428 _0193_
*429 _0194_
*430 _0195_
*431 _0196_
*432 _0197_
*433 _0198_
*434 _0199_
*435 _0200_
*436 _0201_
*437 _0202_
*438 _0203_
*439 _0204_
*440 _0205_
*441 _0206_
*442 _0207_
*443 _0208_
*444 _0209_
*445 _0210_
*446 _0211_
*447 _0212_
*448 _0213_
*449 _0214_
*450 _0215_
*451 _0216_
*452 _0217_
*453 _0218_
*454 _0219_
*455 _0220_
*456 _0221_
*457 _0222_
*458 _0223_
*459 _0224_
*460 _0225_
*461 _0226_
*462 _0227_
*463 _0228_
*464 _0229_
*465 _0230_
*466 _0231_
*467 _0232_
*468 _0233_
*469 _0234_
*470 _0235_
*471 _0236_
*472 _0237_
*473 _0238_
*474 _0239_
*475 _0240_
*476 _0241_
*477 _0242_
*478 _0243_
*479 _0244_
*480 _0245_
*481 _0246_
*482 _0247_
*483 _0248_
*484 _0249_
*485 _0250_
*486 _0251_
*487 _0252_
*488 _0253_
*489 _0254_
*490 _0255_
*491 _0256_
*492 _0257_
*493 _0258_
*494 _0259_
*495 _0260_
*496 _0261_
*497 _0262_
*498 _0263_
*499 _0264_
*500 _0265_
*501 _0266_
*502 _0267_
*503 _0268_
*504 _0269_
*505 _0270_
*506 _0271_
*507 _0272_
*508 _0273_
*509 _0274_
*510 _0275_
*511 _0276_
*512 _0277_
*513 _0278_
*514 _0279_
*515 _0280_
*516 _0281_
*517 _0282_
*518 _0283_
*519 _0284_
*520 _0285_
*521 _0286_
*522 _0287_
*523 _0288_
*524 _0289_
*525 _0290_
*526 _0291_
*527 _0292_
*528 _0293_
*529 _0294_
*530 _0295_
*531 _0296_
*532 _0297_
*533 _0298_
*534 _0299_
*535 _0300_
*536 _0301_
*537 _0302_
*538 _0303_
*539 _0304_
*540 _0305_
*541 _0306_
*542 _0307_
*543 _0308_
*544 _0309_
*545 _0310_
*546 _0311_
*547 _0312_
*548 _0313_
*549 _0314_
*550 _0315_
*551 _0316_
*552 _0317_
*553 _0318_
*554 _0319_
*555 _0320_
*556 _0321_
*557 _0322_
*558 _0323_
*559 _0324_
*560 _0325_
*561 _0326_
*562 _0327_
*563 _0328_
*564 _0329_
*565 _0330_
*566 _0331_
*567 _0332_
*568 _0333_
*569 _0334_
*570 _0335_
*571 _0336_
*572 _0337_
*573 _0338_
*574 _0339_
*575 _0340_
*576 _0341_
*577 _0342_
*578 _0343_
*579 _0344_
*580 _0345_
*581 _0346_
*582 _0347_
*583 _0348_
*584 _0349_
*585 _0350_
*586 _0351_
*587 _0352_
*588 _0353_
*589 _0354_
*590 _0355_
*591 _0356_
*592 _0357_
*593 _0358_
*594 _0359_
*595 _0360_
*596 _0361_
*597 _0362_
*598 _0363_
*599 _0364_
*600 _0365_
*601 _0366_
*602 _0367_
*603 _0368_
*604 _0369_
*605 _0370_
*606 _0371_
*607 _0372_
*608 _0373_
*609 _0374_
*610 _0375_
*611 _0376_
*612 _0377_
*613 _0378_
*614 _0379_
*615 _0380_
*616 _0381_
*617 _0382_
*618 _0383_
*619 _0384_
*620 _0385_
*621 _0386_
*622 _0387_
*623 _0388_
*624 _0389_
*625 _0390_
*626 _0391_
*627 _0392_
*628 _0393_
*629 _0394_
*630 _0395_
*631 _0396_
*632 _0397_
*633 _0398_
*634 _0399_
*635 _0400_
*636 _0401_
*637 _0402_
*638 _0403_
*639 _0404_
*640 _0405_
*641 _0406_
*642 _0407_
*643 _0408_
*644 _0409_
*645 _0410_
*646 _0411_
*647 _0412_
*648 _0413_
*649 _0414_
*650 _0415_
*651 _0416_
*652 _0417_
*653 _0418_
*654 _0419_
*655 _0420_
*656 _0421_
*657 _0422_
*658 _0423_
*659 _0424_
*660 _0425_
*661 _0426_
*662 _0427_
*663 _0428_
*664 _0429_
*665 _0430_
*666 _0431_
*667 _0432_
*668 _0433_
*669 _0434_
*670 _0435_
*671 _0436_
*672 _0437_
*673 _0438_
*674 _0439_
*675 _0440_
*676 _0441_
*677 _0442_
*678 _0443_
*679 _0444_
*680 _0445_
*681 _0446_
*682 _0447_
*683 _0448_
*684 _0449_
*685 _0450_
*686 _0451_
*687 _0452_
*688 _0453_
*689 _0454_
*690 _0455_
*691 _0456_
*692 _0457_
*693 _0458_
*694 _0459_
*695 _0460_
*696 _0461_
*697 _0462_
*698 _0463_
*699 _0464_
*700 _0465_
*701 _0466_
*702 _0467_
*703 _0468_
*704 _0469_
*705 _0470_
*706 _0471_
*707 _0472_
*708 _0473_
*709 _0474_
*710 _0475_
*711 _0476_
*712 _0477_
*713 _0478_
*714 _0479_
*715 _0480_
*716 _0481_
*717 _0482_
*718 _0483_
*719 _0484_
*720 _0485_
*721 _0486_
*722 _0487_
*723 _0488_
*724 _0489_
*725 _0490_
*726 _0491_
*727 _0492_
*728 _0493_
*729 _0494_
*730 _0495_
*731 _0496_
*732 _0497_
*733 _0498_
*734 _0499_
*735 _0500_
*736 _0501_
*737 _0502_
*738 _0503_
*739 _0504_
*740 _0505_
*741 _0506_
*742 _0507_
*743 _0508_
*744 _0509_
*745 _0510_
*746 _0511_
*747 _0512_
*748 _0513_
*749 _0514_
*750 _0515_
*751 _0516_
*752 _0517_
*753 _0518_
*754 _0519_
*755 _0520_
*756 _0521_
*757 _0522_
*758 _0523_
*759 _0524_
*760 _0525_
*761 _0526_
*762 _0527_
*763 _0528_
*764 _0529_
*765 _0530_
*766 _0531_
*767 _0532_
*768 _0533_
*769 _0534_
*770 _0535_
*771 _0536_
*772 _0537_
*773 _0538_
*774 _0539_
*775 _0540_
*776 _0541_
*777 _0542_
*778 _0543_
*779 _0544_
*780 _0545_
*781 _0546_
*782 _0547_
*783 _0548_
*784 _0549_
*785 _0550_
*786 _0551_
*787 _0552_
*788 _0553_
*789 _0554_
*790 _0555_
*791 _0556_
*792 _0557_
*793 _0558_
*794 _0559_
*795 _0560_
*796 _0561_
*797 _0562_
*798 _0563_
*799 _0564_
*800 _0565_
*801 _0566_
*802 _0567_
*803 _0568_
*804 _0569_
*805 _0570_
*806 _0571_
*807 _0572_
*808 _0573_
*809 _0574_
*810 _0575_
*811 _0576_
*812 _0577_
*813 _0578_
*814 _0579_
*815 _0580_
*816 _0581_
*817 _0582_
*818 _0583_
*819 _0584_
*820 _0585_
*821 _0586_
*822 _0587_
*823 _0588_
*824 _0589_
*825 _0590_
*826 _0591_
*827 _0592_
*828 _0593_
*829 _0594_
*830 _0595_
*831 _0596_
*832 _0597_
*833 _0598_
*834 _0599_
*835 _0600_
*836 _0601_
*837 _0602_
*838 _0603_
*839 _0604_
*840 _0605_
*841 _0606_
*842 _0607_
*843 _0608_
*844 _0609_
*845 _0610_
*846 _0611_
*847 _0612_
*848 _0613_
*849 _0614_
*850 _0615_
*851 _0616_
*852 _0617_
*853 _0618_
*854 _0619_
*855 _0620_
*856 _0621_
*857 _0622_
*858 _0623_
*859 _0624_
*860 _0625_
*861 _0626_
*862 _0627_
*863 _0628_
*864 _0629_
*865 _0630_
*866 _0631_
*867 _0632_
*868 _0633_
*869 _0634_
*870 _0635_
*871 _0636_
*872 clknet_0_clk
*873 clknet_3_0__leaf_clk
*874 clknet_3_1__leaf_clk
*875 clknet_3_2__leaf_clk
*876 clknet_3_3__leaf_clk
*877 clknet_3_4__leaf_clk
*878 clknet_3_5__leaf_clk
*879 clknet_3_6__leaf_clk
*880 clknet_3_7__leaf_clk
*881 hac_inst\.count\[0\]
*882 hac_inst\.count\[10\]
*883 hac_inst\.count\[11\]
*884 hac_inst\.count\[12\]
*885 hac_inst\.count\[13\]
*886 hac_inst\.count\[14\]
*887 hac_inst\.count\[15\]
*888 hac_inst\.count\[16\]
*889 hac_inst\.count\[17\]
*890 hac_inst\.count\[18\]
*891 hac_inst\.count\[19\]
*892 hac_inst\.count\[1\]
*893 hac_inst\.count\[20\]
*894 hac_inst\.count\[21\]
*895 hac_inst\.count\[22\]
*896 hac_inst\.count\[23\]
*897 hac_inst\.count\[24\]
*898 hac_inst\.count\[25\]
*899 hac_inst\.count\[26\]
*900 hac_inst\.count\[27\]
*901 hac_inst\.count\[28\]
*902 hac_inst\.count\[29\]
*903 hac_inst\.count\[2\]
*904 hac_inst\.count\[30\]
*905 hac_inst\.count\[31\]
*906 hac_inst\.count\[3\]
*907 hac_inst\.count\[4\]
*908 hac_inst\.count\[5\]
*909 hac_inst\.count\[6\]
*910 hac_inst\.count\[7\]
*911 hac_inst\.count\[8\]
*912 hac_inst\.count\[9\]
*913 hac_offset\[0\]
*914 hac_offset\[10\]
*915 hac_offset\[11\]
*916 hac_offset\[12\]
*917 hac_offset\[13\]
*918 hac_offset\[14\]
*919 hac_offset\[15\]
*920 hac_offset\[16\]
*921 hac_offset\[17\]
*922 hac_offset\[18\]
*923 hac_offset\[19\]
*924 hac_offset\[1\]
*925 hac_offset\[20\]
*926 hac_offset\[21\]
*927 hac_offset\[22\]
*928 hac_offset\[23\]
*929 hac_offset\[24\]
*930 hac_offset\[25\]
*931 hac_offset\[26\]
*932 hac_offset\[27\]
*933 hac_offset\[28\]
*934 hac_offset\[29\]
*935 hac_offset\[2\]
*936 hac_offset\[30\]
*937 hac_offset\[31\]
*938 hac_offset\[3\]
*939 hac_offset\[4\]
*940 hac_offset\[5\]
*941 hac_offset\[6\]
*942 hac_offset\[7\]
*943 hac_offset\[8\]
*944 hac_offset\[9\]
*945 FILLER_0_0_1005
*946 FILLER_0_0_1009
*947 FILLER_0_0_1021
*948 FILLER_0_0_1033
*949 FILLER_0_0_1037
*950 FILLER_0_0_1049
*951 FILLER_0_0_1061
*952 FILLER_0_0_1065
*953 FILLER_0_0_1077
*954 FILLER_0_0_109
*955 FILLER_0_0_113
*956 FILLER_0_0_125
*957 FILLER_0_0_137
*958 FILLER_0_0_141
*959 FILLER_0_0_15
*960 FILLER_0_0_153
*961 FILLER_0_0_165
*962 FILLER_0_0_169
*963 FILLER_0_0_181
*964 FILLER_0_0_193
*965 FILLER_0_0_197
*966 FILLER_0_0_209
*967 FILLER_0_0_221
*968 FILLER_0_0_225
*969 FILLER_0_0_237
*970 FILLER_0_0_249
*971 FILLER_0_0_253
*972 FILLER_0_0_265
*973 FILLER_0_0_27
*974 FILLER_0_0_277
*975 FILLER_0_0_281
*976 FILLER_0_0_29
*977 FILLER_0_0_293
*978 FILLER_0_0_3
*979 FILLER_0_0_305
*980 FILLER_0_0_309
*981 FILLER_0_0_321
*982 FILLER_0_0_333
*983 FILLER_0_0_337
*984 FILLER_0_0_349
*985 FILLER_0_0_361
*986 FILLER_0_0_365
*987 FILLER_0_0_377
*988 FILLER_0_0_389
*989 FILLER_0_0_393
*990 FILLER_0_0_405
*991 FILLER_0_0_41
*992 FILLER_0_0_417
*993 FILLER_0_0_421
*994 FILLER_0_0_433
*995 FILLER_0_0_445
*996 FILLER_0_0_449
*997 FILLER_0_0_461
*998 FILLER_0_0_473
*999 FILLER_0_0_477
*1000 FILLER_0_0_489
*1001 FILLER_0_0_501
*1002 FILLER_0_0_505
*1003 FILLER_0_0_517
*1004 FILLER_0_0_529
*1005 FILLER_0_0_53
*1006 FILLER_0_0_533
*1007 FILLER_0_0_545
*1008 FILLER_0_0_557
*1009 FILLER_0_0_561
*1010 FILLER_0_0_57
*1011 FILLER_0_0_573
*1012 FILLER_0_0_585
*1013 FILLER_0_0_589
*1014 FILLER_0_0_601
*1015 FILLER_0_0_613
*1016 FILLER_0_0_617
*1017 FILLER_0_0_629
*1018 FILLER_0_0_641
*1019 FILLER_0_0_645
*1020 FILLER_0_0_657
*1021 FILLER_0_0_669
*1022 FILLER_0_0_673
*1023 FILLER_0_0_685
*1024 FILLER_0_0_69
*1025 FILLER_0_0_697
*1026 FILLER_0_0_701
*1027 FILLER_0_0_713
*1028 FILLER_0_0_725
*1029 FILLER_0_0_729
*1030 FILLER_0_0_741
*1031 FILLER_0_0_753
*1032 FILLER_0_0_757
*1033 FILLER_0_0_769
*1034 FILLER_0_0_781
*1035 FILLER_0_0_785
*1036 FILLER_0_0_797
*1037 FILLER_0_0_809
*1038 FILLER_0_0_81
*1039 FILLER_0_0_813
*1040 FILLER_0_0_825
*1041 FILLER_0_0_837
*1042 FILLER_0_0_841
*1043 FILLER_0_0_85
*1044 FILLER_0_0_853
*1045 FILLER_0_0_865
*1046 FILLER_0_0_869
*1047 FILLER_0_0_881
*1048 FILLER_0_0_893
*1049 FILLER_0_0_897
*1050 FILLER_0_0_909
*1051 FILLER_0_0_921
*1052 FILLER_0_0_925
*1053 FILLER_0_0_937
*1054 FILLER_0_0_949
*1055 FILLER_0_0_953
*1056 FILLER_0_0_965
*1057 FILLER_0_0_97
*1058 FILLER_0_0_977
*1059 FILLER_0_0_981
*1060 FILLER_0_0_993
*1061 FILLER_0_100_1005
*1062 FILLER_0_100_1017
*1063 FILLER_0_100_1029
*1064 FILLER_0_100_1035
*1065 FILLER_0_100_1037
*1066 FILLER_0_100_1049
*1067 FILLER_0_100_1061
*1068 FILLER_0_100_1073
*1069 FILLER_0_100_1081
*1070 FILLER_0_100_109
*1071 FILLER_0_100_121
*1072 FILLER_0_100_133
*1073 FILLER_0_100_139
*1074 FILLER_0_100_141
*1075 FILLER_0_100_15
*1076 FILLER_0_100_153
*1077 FILLER_0_100_165
*1078 FILLER_0_100_177
*1079 FILLER_0_100_189
*1080 FILLER_0_100_195
*1081 FILLER_0_100_197
*1082 FILLER_0_100_209
*1083 FILLER_0_100_221
*1084 FILLER_0_100_233
*1085 FILLER_0_100_245
*1086 FILLER_0_100_251
*1087 FILLER_0_100_253
*1088 FILLER_0_100_265
*1089 FILLER_0_100_27
*1090 FILLER_0_100_277
*1091 FILLER_0_100_289
*1092 FILLER_0_100_29
*1093 FILLER_0_100_3
*1094 FILLER_0_100_301
*1095 FILLER_0_100_307
*1096 FILLER_0_100_309
*1097 FILLER_0_100_321
*1098 FILLER_0_100_333
*1099 FILLER_0_100_345
*1100 FILLER_0_100_357
*1101 FILLER_0_100_363
*1102 FILLER_0_100_365
*1103 FILLER_0_100_377
*1104 FILLER_0_100_389
*1105 FILLER_0_100_401
*1106 FILLER_0_100_41
*1107 FILLER_0_100_413
*1108 FILLER_0_100_419
*1109 FILLER_0_100_421
*1110 FILLER_0_100_433
*1111 FILLER_0_100_445
*1112 FILLER_0_100_457
*1113 FILLER_0_100_469
*1114 FILLER_0_100_475
*1115 FILLER_0_100_477
*1116 FILLER_0_100_481
*1117 FILLER_0_100_495
*1118 FILLER_0_100_507
*1119 FILLER_0_100_519
*1120 FILLER_0_100_53
*1121 FILLER_0_100_531
*1122 FILLER_0_100_533
*1123 FILLER_0_100_545
*1124 FILLER_0_100_557
*1125 FILLER_0_100_569
*1126 FILLER_0_100_581
*1127 FILLER_0_100_587
*1128 FILLER_0_100_589
*1129 FILLER_0_100_601
*1130 FILLER_0_100_613
*1131 FILLER_0_100_625
*1132 FILLER_0_100_637
*1133 FILLER_0_100_643
*1134 FILLER_0_100_645
*1135 FILLER_0_100_65
*1136 FILLER_0_100_657
*1137 FILLER_0_100_669
*1138 FILLER_0_100_681
*1139 FILLER_0_100_693
*1140 FILLER_0_100_699
*1141 FILLER_0_100_701
*1142 FILLER_0_100_713
*1143 FILLER_0_100_725
*1144 FILLER_0_100_737
*1145 FILLER_0_100_749
*1146 FILLER_0_100_755
*1147 FILLER_0_100_757
*1148 FILLER_0_100_769
*1149 FILLER_0_100_77
*1150 FILLER_0_100_781
*1151 FILLER_0_100_793
*1152 FILLER_0_100_805
*1153 FILLER_0_100_811
*1154 FILLER_0_100_813
*1155 FILLER_0_100_825
*1156 FILLER_0_100_83
*1157 FILLER_0_100_837
*1158 FILLER_0_100_849
*1159 FILLER_0_100_85
*1160 FILLER_0_100_861
*1161 FILLER_0_100_867
*1162 FILLER_0_100_869
*1163 FILLER_0_100_881
*1164 FILLER_0_100_893
*1165 FILLER_0_100_905
*1166 FILLER_0_100_917
*1167 FILLER_0_100_923
*1168 FILLER_0_100_925
*1169 FILLER_0_100_937
*1170 FILLER_0_100_949
*1171 FILLER_0_100_961
*1172 FILLER_0_100_97
*1173 FILLER_0_100_973
*1174 FILLER_0_100_979
*1175 FILLER_0_100_981
*1176 FILLER_0_100_993
*1177 FILLER_0_101_1001
*1178 FILLER_0_101_1007
*1179 FILLER_0_101_1009
*1180 FILLER_0_101_1021
*1181 FILLER_0_101_1033
*1182 FILLER_0_101_1045
*1183 FILLER_0_101_105
*1184 FILLER_0_101_1057
*1185 FILLER_0_101_1063
*1186 FILLER_0_101_1065
*1187 FILLER_0_101_1077
*1188 FILLER_0_101_111
*1189 FILLER_0_101_113
*1190 FILLER_0_101_125
*1191 FILLER_0_101_137
*1192 FILLER_0_101_149
*1193 FILLER_0_101_15
*1194 FILLER_0_101_161
*1195 FILLER_0_101_167
*1196 FILLER_0_101_169
*1197 FILLER_0_101_181
*1198 FILLER_0_101_193
*1199 FILLER_0_101_205
*1200 FILLER_0_101_217
*1201 FILLER_0_101_223
*1202 FILLER_0_101_225
*1203 FILLER_0_101_237
*1204 FILLER_0_101_249
*1205 FILLER_0_101_261
*1206 FILLER_0_101_27
*1207 FILLER_0_101_273
*1208 FILLER_0_101_279
*1209 FILLER_0_101_281
*1210 FILLER_0_101_293
*1211 FILLER_0_101_3
*1212 FILLER_0_101_305
*1213 FILLER_0_101_317
*1214 FILLER_0_101_329
*1215 FILLER_0_101_335
*1216 FILLER_0_101_337
*1217 FILLER_0_101_349
*1218 FILLER_0_101_361
*1219 FILLER_0_101_373
*1220 FILLER_0_101_385
*1221 FILLER_0_101_39
*1222 FILLER_0_101_391
*1223 FILLER_0_101_393
*1224 FILLER_0_101_405
*1225 FILLER_0_101_417
*1226 FILLER_0_101_429
*1227 FILLER_0_101_441
*1228 FILLER_0_101_447
*1229 FILLER_0_101_449
*1230 FILLER_0_101_461
*1231 FILLER_0_101_473
*1232 FILLER_0_101_481
*1233 FILLER_0_101_505
*1234 FILLER_0_101_51
*1235 FILLER_0_101_517
*1236 FILLER_0_101_529
*1237 FILLER_0_101_541
*1238 FILLER_0_101_55
*1239 FILLER_0_101_553
*1240 FILLER_0_101_559
*1241 FILLER_0_101_561
*1242 FILLER_0_101_57
*1243 FILLER_0_101_573
*1244 FILLER_0_101_585
*1245 FILLER_0_101_597
*1246 FILLER_0_101_609
*1247 FILLER_0_101_615
*1248 FILLER_0_101_617
*1249 FILLER_0_101_629
*1250 FILLER_0_101_641
*1251 FILLER_0_101_653
*1252 FILLER_0_101_665
*1253 FILLER_0_101_671
*1254 FILLER_0_101_673
*1255 FILLER_0_101_685
*1256 FILLER_0_101_69
*1257 FILLER_0_101_697
*1258 FILLER_0_101_709
*1259 FILLER_0_101_721
*1260 FILLER_0_101_727
*1261 FILLER_0_101_729
*1262 FILLER_0_101_741
*1263 FILLER_0_101_753
*1264 FILLER_0_101_765
*1265 FILLER_0_101_777
*1266 FILLER_0_101_783
*1267 FILLER_0_101_785
*1268 FILLER_0_101_797
*1269 FILLER_0_101_809
*1270 FILLER_0_101_81
*1271 FILLER_0_101_821
*1272 FILLER_0_101_833
*1273 FILLER_0_101_839
*1274 FILLER_0_101_841
*1275 FILLER_0_101_853
*1276 FILLER_0_101_865
*1277 FILLER_0_101_877
*1278 FILLER_0_101_889
*1279 FILLER_0_101_895
*1280 FILLER_0_101_897
*1281 FILLER_0_101_909
*1282 FILLER_0_101_921
*1283 FILLER_0_101_93
*1284 FILLER_0_101_933
*1285 FILLER_0_101_945
*1286 FILLER_0_101_951
*1287 FILLER_0_101_953
*1288 FILLER_0_101_965
*1289 FILLER_0_101_977
*1290 FILLER_0_101_989
*1291 FILLER_0_102_1005
*1292 FILLER_0_102_1017
*1293 FILLER_0_102_1029
*1294 FILLER_0_102_1035
*1295 FILLER_0_102_1037
*1296 FILLER_0_102_1049
*1297 FILLER_0_102_1061
*1298 FILLER_0_102_1073
*1299 FILLER_0_102_1081
*1300 FILLER_0_102_109
*1301 FILLER_0_102_121
*1302 FILLER_0_102_133
*1303 FILLER_0_102_139
*1304 FILLER_0_102_141
*1305 FILLER_0_102_15
*1306 FILLER_0_102_153
*1307 FILLER_0_102_165
*1308 FILLER_0_102_177
*1309 FILLER_0_102_189
*1310 FILLER_0_102_195
*1311 FILLER_0_102_197
*1312 FILLER_0_102_209
*1313 FILLER_0_102_221
*1314 FILLER_0_102_233
*1315 FILLER_0_102_245
*1316 FILLER_0_102_251
*1317 FILLER_0_102_253
*1318 FILLER_0_102_265
*1319 FILLER_0_102_27
*1320 FILLER_0_102_277
*1321 FILLER_0_102_289
*1322 FILLER_0_102_29
*1323 FILLER_0_102_3
*1324 FILLER_0_102_301
*1325 FILLER_0_102_307
*1326 FILLER_0_102_309
*1327 FILLER_0_102_321
*1328 FILLER_0_102_333
*1329 FILLER_0_102_345
*1330 FILLER_0_102_357
*1331 FILLER_0_102_363
*1332 FILLER_0_102_365
*1333 FILLER_0_102_377
*1334 FILLER_0_102_389
*1335 FILLER_0_102_401
*1336 FILLER_0_102_41
*1337 FILLER_0_102_413
*1338 FILLER_0_102_419
*1339 FILLER_0_102_421
*1340 FILLER_0_102_433
*1341 FILLER_0_102_445
*1342 FILLER_0_102_457
*1343 FILLER_0_102_469
*1344 FILLER_0_102_475
*1345 FILLER_0_102_477
*1346 FILLER_0_102_489
*1347 FILLER_0_102_497
*1348 FILLER_0_102_509
*1349 FILLER_0_102_521
*1350 FILLER_0_102_529
*1351 FILLER_0_102_53
*1352 FILLER_0_102_533
*1353 FILLER_0_102_545
*1354 FILLER_0_102_557
*1355 FILLER_0_102_569
*1356 FILLER_0_102_581
*1357 FILLER_0_102_587
*1358 FILLER_0_102_589
*1359 FILLER_0_102_601
*1360 FILLER_0_102_613
*1361 FILLER_0_102_625
*1362 FILLER_0_102_637
*1363 FILLER_0_102_643
*1364 FILLER_0_102_645
*1365 FILLER_0_102_65
*1366 FILLER_0_102_657
*1367 FILLER_0_102_669
*1368 FILLER_0_102_681
*1369 FILLER_0_102_693
*1370 FILLER_0_102_699
*1371 FILLER_0_102_701
*1372 FILLER_0_102_713
*1373 FILLER_0_102_725
*1374 FILLER_0_102_737
*1375 FILLER_0_102_749
*1376 FILLER_0_102_755
*1377 FILLER_0_102_757
*1378 FILLER_0_102_769
*1379 FILLER_0_102_77
*1380 FILLER_0_102_781
*1381 FILLER_0_102_793
*1382 FILLER_0_102_805
*1383 FILLER_0_102_811
*1384 FILLER_0_102_813
*1385 FILLER_0_102_825
*1386 FILLER_0_102_83
*1387 FILLER_0_102_837
*1388 FILLER_0_102_849
*1389 FILLER_0_102_85
*1390 FILLER_0_102_861
*1391 FILLER_0_102_867
*1392 FILLER_0_102_869
*1393 FILLER_0_102_881
*1394 FILLER_0_102_893
*1395 FILLER_0_102_905
*1396 FILLER_0_102_917
*1397 FILLER_0_102_923
*1398 FILLER_0_102_925
*1399 FILLER_0_102_937
*1400 FILLER_0_102_949
*1401 FILLER_0_102_961
*1402 FILLER_0_102_97
*1403 FILLER_0_102_973
*1404 FILLER_0_102_979
*1405 FILLER_0_102_981
*1406 FILLER_0_102_993
*1407 FILLER_0_103_1001
*1408 FILLER_0_103_1007
*1409 FILLER_0_103_1009
*1410 FILLER_0_103_1021
*1411 FILLER_0_103_1033
*1412 FILLER_0_103_1045
*1413 FILLER_0_103_105
*1414 FILLER_0_103_1057
*1415 FILLER_0_103_1063
*1416 FILLER_0_103_1065
*1417 FILLER_0_103_1077
*1418 FILLER_0_103_111
*1419 FILLER_0_103_113
*1420 FILLER_0_103_125
*1421 FILLER_0_103_137
*1422 FILLER_0_103_149
*1423 FILLER_0_103_15
*1424 FILLER_0_103_161
*1425 FILLER_0_103_167
*1426 FILLER_0_103_169
*1427 FILLER_0_103_181
*1428 FILLER_0_103_193
*1429 FILLER_0_103_205
*1430 FILLER_0_103_217
*1431 FILLER_0_103_223
*1432 FILLER_0_103_225
*1433 FILLER_0_103_237
*1434 FILLER_0_103_249
*1435 FILLER_0_103_261
*1436 FILLER_0_103_27
*1437 FILLER_0_103_273
*1438 FILLER_0_103_279
*1439 FILLER_0_103_281
*1440 FILLER_0_103_293
*1441 FILLER_0_103_3
*1442 FILLER_0_103_305
*1443 FILLER_0_103_317
*1444 FILLER_0_103_329
*1445 FILLER_0_103_335
*1446 FILLER_0_103_337
*1447 FILLER_0_103_349
*1448 FILLER_0_103_361
*1449 FILLER_0_103_373
*1450 FILLER_0_103_385
*1451 FILLER_0_103_39
*1452 FILLER_0_103_391
*1453 FILLER_0_103_393
*1454 FILLER_0_103_405
*1455 FILLER_0_103_417
*1456 FILLER_0_103_429
*1457 FILLER_0_103_441
*1458 FILLER_0_103_447
*1459 FILLER_0_103_449
*1460 FILLER_0_103_461
*1461 FILLER_0_103_473
*1462 FILLER_0_103_485
*1463 FILLER_0_103_497
*1464 FILLER_0_103_503
*1465 FILLER_0_103_505
*1466 FILLER_0_103_51
*1467 FILLER_0_103_517
*1468 FILLER_0_103_529
*1469 FILLER_0_103_541
*1470 FILLER_0_103_55
*1471 FILLER_0_103_553
*1472 FILLER_0_103_559
*1473 FILLER_0_103_561
*1474 FILLER_0_103_57
*1475 FILLER_0_103_573
*1476 FILLER_0_103_585
*1477 FILLER_0_103_597
*1478 FILLER_0_103_609
*1479 FILLER_0_103_615
*1480 FILLER_0_103_617
*1481 FILLER_0_103_629
*1482 FILLER_0_103_641
*1483 FILLER_0_103_653
*1484 FILLER_0_103_665
*1485 FILLER_0_103_671
*1486 FILLER_0_103_673
*1487 FILLER_0_103_685
*1488 FILLER_0_103_69
*1489 FILLER_0_103_697
*1490 FILLER_0_103_709
*1491 FILLER_0_103_721
*1492 FILLER_0_103_727
*1493 FILLER_0_103_729
*1494 FILLER_0_103_741
*1495 FILLER_0_103_753
*1496 FILLER_0_103_765
*1497 FILLER_0_103_777
*1498 FILLER_0_103_783
*1499 FILLER_0_103_785
*1500 FILLER_0_103_797
*1501 FILLER_0_103_809
*1502 FILLER_0_103_81
*1503 FILLER_0_103_821
*1504 FILLER_0_103_833
*1505 FILLER_0_103_839
*1506 FILLER_0_103_841
*1507 FILLER_0_103_853
*1508 FILLER_0_103_865
*1509 FILLER_0_103_877
*1510 FILLER_0_103_889
*1511 FILLER_0_103_895
*1512 FILLER_0_103_897
*1513 FILLER_0_103_909
*1514 FILLER_0_103_921
*1515 FILLER_0_103_93
*1516 FILLER_0_103_933
*1517 FILLER_0_103_945
*1518 FILLER_0_103_951
*1519 FILLER_0_103_953
*1520 FILLER_0_103_965
*1521 FILLER_0_103_977
*1522 FILLER_0_103_989
*1523 FILLER_0_104_1005
*1524 FILLER_0_104_1017
*1525 FILLER_0_104_1029
*1526 FILLER_0_104_1035
*1527 FILLER_0_104_1037
*1528 FILLER_0_104_1049
*1529 FILLER_0_104_1061
*1530 FILLER_0_104_1073
*1531 FILLER_0_104_1081
*1532 FILLER_0_104_109
*1533 FILLER_0_104_121
*1534 FILLER_0_104_133
*1535 FILLER_0_104_139
*1536 FILLER_0_104_141
*1537 FILLER_0_104_15
*1538 FILLER_0_104_153
*1539 FILLER_0_104_165
*1540 FILLER_0_104_177
*1541 FILLER_0_104_189
*1542 FILLER_0_104_195
*1543 FILLER_0_104_197
*1544 FILLER_0_104_209
*1545 FILLER_0_104_221
*1546 FILLER_0_104_233
*1547 FILLER_0_104_245
*1548 FILLER_0_104_251
*1549 FILLER_0_104_253
*1550 FILLER_0_104_265
*1551 FILLER_0_104_27
*1552 FILLER_0_104_277
*1553 FILLER_0_104_289
*1554 FILLER_0_104_29
*1555 FILLER_0_104_3
*1556 FILLER_0_104_301
*1557 FILLER_0_104_307
*1558 FILLER_0_104_309
*1559 FILLER_0_104_321
*1560 FILLER_0_104_333
*1561 FILLER_0_104_345
*1562 FILLER_0_104_357
*1563 FILLER_0_104_363
*1564 FILLER_0_104_365
*1565 FILLER_0_104_377
*1566 FILLER_0_104_389
*1567 FILLER_0_104_401
*1568 FILLER_0_104_41
*1569 FILLER_0_104_413
*1570 FILLER_0_104_419
*1571 FILLER_0_104_421
*1572 FILLER_0_104_433
*1573 FILLER_0_104_445
*1574 FILLER_0_104_457
*1575 FILLER_0_104_469
*1576 FILLER_0_104_475
*1577 FILLER_0_104_477
*1578 FILLER_0_104_489
*1579 FILLER_0_104_502
*1580 FILLER_0_104_514
*1581 FILLER_0_104_526
*1582 FILLER_0_104_53
*1583 FILLER_0_104_533
*1584 FILLER_0_104_545
*1585 FILLER_0_104_557
*1586 FILLER_0_104_569
*1587 FILLER_0_104_581
*1588 FILLER_0_104_587
*1589 FILLER_0_104_589
*1590 FILLER_0_104_601
*1591 FILLER_0_104_613
*1592 FILLER_0_104_625
*1593 FILLER_0_104_637
*1594 FILLER_0_104_643
*1595 FILLER_0_104_645
*1596 FILLER_0_104_65
*1597 FILLER_0_104_657
*1598 FILLER_0_104_669
*1599 FILLER_0_104_681
*1600 FILLER_0_104_693
*1601 FILLER_0_104_699
*1602 FILLER_0_104_701
*1603 FILLER_0_104_713
*1604 FILLER_0_104_725
*1605 FILLER_0_104_737
*1606 FILLER_0_104_749
*1607 FILLER_0_104_755
*1608 FILLER_0_104_757
*1609 FILLER_0_104_769
*1610 FILLER_0_104_77
*1611 FILLER_0_104_781
*1612 FILLER_0_104_793
*1613 FILLER_0_104_805
*1614 FILLER_0_104_811
*1615 FILLER_0_104_813
*1616 FILLER_0_104_825
*1617 FILLER_0_104_83
*1618 FILLER_0_104_837
*1619 FILLER_0_104_849
*1620 FILLER_0_104_85
*1621 FILLER_0_104_861
*1622 FILLER_0_104_867
*1623 FILLER_0_104_869
*1624 FILLER_0_104_881
*1625 FILLER_0_104_893
*1626 FILLER_0_104_905
*1627 FILLER_0_104_917
*1628 FILLER_0_104_923
*1629 FILLER_0_104_925
*1630 FILLER_0_104_937
*1631 FILLER_0_104_949
*1632 FILLER_0_104_961
*1633 FILLER_0_104_97
*1634 FILLER_0_104_973
*1635 FILLER_0_104_979
*1636 FILLER_0_104_981
*1637 FILLER_0_104_993
*1638 FILLER_0_105_1001
*1639 FILLER_0_105_1007
*1640 FILLER_0_105_1009
*1641 FILLER_0_105_1021
*1642 FILLER_0_105_1033
*1643 FILLER_0_105_1045
*1644 FILLER_0_105_105
*1645 FILLER_0_105_1057
*1646 FILLER_0_105_1063
*1647 FILLER_0_105_1065
*1648 FILLER_0_105_1077
*1649 FILLER_0_105_111
*1650 FILLER_0_105_113
*1651 FILLER_0_105_125
*1652 FILLER_0_105_137
*1653 FILLER_0_105_149
*1654 FILLER_0_105_15
*1655 FILLER_0_105_161
*1656 FILLER_0_105_167
*1657 FILLER_0_105_169
*1658 FILLER_0_105_181
*1659 FILLER_0_105_193
*1660 FILLER_0_105_205
*1661 FILLER_0_105_217
*1662 FILLER_0_105_223
*1663 FILLER_0_105_225
*1664 FILLER_0_105_237
*1665 FILLER_0_105_249
*1666 FILLER_0_105_261